@<TRIPOS>MOLECULE
DGJ
25 25 0 0 0
SMALL
USER_CHARGES
#CGenFF output mol2 file
@<TRIPOS>ATOM
1	C1    39.1650    16.0310    31.3510	C.3	1	DGJ      0.2170
2	C2    39.9530    16.1960    30.0620	C.3	1	DGJ      0.0840
3	O1    41.0940    17.0270    30.2770	O.3	1	DGJ     -0.6430
4	C3    39.0140    16.7460    28.9920	C.3	1	DGJ      0.0660
5	O2    39.7440    17.0680    27.7990	O.3	1	DGJ     -0.6450
6	C4    37.9450    15.7000    28.7120	C.3	1	DGJ      0.2520
7	O3    38.5840    14.5650    28.1190	O.3	1	DGJ     -0.6500
8	C5    37.1990    15.2780    29.9840	C.3	1	DGJ      0.1410
9	N    38.1340    15.0600    31.0690	N.4	1	DGJ     -0.3230
10	C6    36.3920    14.0070    29.7670	C.3	1	DGJ      0.1330
11	O4    35.4890    13.8040    30.8510	O.3	1	DGJ     -0.6690
12	H1    38.7275    16.9635    31.6407	H	1	DGJ      0.0900
13	H2    39.7939    15.7108    32.1552	H	1	DGJ      0.0900
14	H3    40.3313    15.2534    29.7255	H	1	DGJ      0.0900
15	H4    40.8047    17.9000    30.5852	H	1	DGJ      0.4040
16	H5    38.5525    17.6479    29.3361	H	1	DGJ      0.0900
17	H6    40.1767    16.2691    27.4591	H	1	DGJ      0.4200
18	H7    37.2148    16.1196    28.0520	H	1	DGJ      0.0900
19	H8    39.2397    14.2041    28.7360	H	1	DGJ      0.4200
20	H9    36.5271    16.0725    30.2333	H	1	DGJ      0.1100
21	H10    37.5788    14.9671    31.9196	H	1	DGJ      0.3170
22	H11    38.6633    14.2458    30.7571	H	1	DGJ      0.3170
23	H12    37.0584    13.1724    29.7016	H	1	DGJ      0.0900
24	H13    35.8320    14.1005    28.8600	H	1	DGJ      0.0900
25	H14    35.9898    13.7183    31.6773	H	1	DGJ      0.4190
@<TRIPOS>BOND
1	1	2	1
2	2	3	1
3	2	4	1
4	4	5	1
5	4	6	1
6	6	7	1
7	6	8	1
8	1	9	1
9	8	9	1
10	8	10	1
11	10	11	1
12	1	12	1
13	1	13	1
14	2	14	1
15	3	15	1
16	4	16	1
17	5	17	1
18	6	18	1
19	7	19	1
20	8	20	1
21	9	21	1
22	9	22	1
23	10	23	1
24	10	24	1
25	11	25	1
