# created with PyMOL 3.1.0a0
@<TRIPOS>MOLECULE
DGJ_B
11 11 1                 
SMALL
USER_CHARGES
@<TRIPOS>ATOM
1	  C1	34.520	57.736	32.670	C.3	1	DGJ802	0.000	
2	  C2	33.115	57.507	32.116	C.3	1	DGJ802	0.000	
3	  O2	32.394	56.585	32.936	O.3	1	DGJ802	0.000	
4	  C3	33.197	57.009	30.672	C.3	1	DGJ802	0.000	
5	  O3	31.881	56.671	30.190	O.3	1	DGJ802	0.000	
6	  C4	33.837	58.088	29.798	C.3	1	DGJ802	0.000	
7	  O4	32.966	59.239	29.703	O.3	1	DGJ802	0.000	
8	  C5	35.208	58.468	30.354	C.3	1	DGJ802	0.000	
9	  N5	35.179	58.684	31.797	N.3	1	DGJ802	0.000	
10	  C6	35.735	59.716	29.677	C.3	1	DGJ802	0.000	
11	  O6	37.094	59.911	30.078	O.3	1	DGJ802	0.000	
@<TRIPOS>BOND
1 1 2 1
2 2 3 1
3 2 4 1
4 4 5 1
5 4 6 1
6 6 7 1
7 6 8 1
8 1 9 1
9 8 9 1
10 8 10 1
11 10 11 1
@<TRIPOS>SUBSTRUCTURE
1	DGJ802	1	GROUP	1 B	DGJ
