# created with PyMOL 3.1.0a0
@<TRIPOS>MOLECULE
DGJ_A
11 11 1                 
SMALL
USER_CHARGES
@<TRIPOS>ATOM
1	  C1	39.165	16.031	31.351	C.3	1	DGJ801	0.000	
2	  C2	39.953	16.196	30.062	C.3	1	DGJ801	0.000	
3	  O2	41.094	17.027	30.277	O.3	1	DGJ801	0.000	
4	  C3	39.014	16.746	28.992	C.3	1	DGJ801	0.000	
5	  O3	39.744	17.068	27.799	O.3	1	DGJ801	0.000	
6	  C4	37.945	15.700	28.712	C.3	1	DGJ801	0.000	
7	  O4	38.584	14.565	28.119	O.3	1	DGJ801	0.000	
8	  C5	37.199	15.278	29.984	C.3	1	DGJ801	0.000	
9	  N5	38.134	15.060	31.069	N.3	1	DGJ801	0.000	
10	  C6	36.392	14.007	29.767	C.3	1	DGJ801	0.000	
11	  O6	35.489	13.804	30.851	O.3	1	DGJ801	0.000	
@<TRIPOS>BOND
1 1 2 1
2 2 3 1
3 2 4 1
4 4 5 1
5 4 6 1
6 6 7 1
7 6 8 1
8 1 9 1
9 8 9 1
10 8 10 1
11 10 11 1
@<TRIPOS>SUBSTRUCTURE
1	DGJ801	1	GROUP	1 A	DGJ
