@<TRIPOS>MOLECULE
DGJ
25 25 0 0 0
SMALL
USER_CHARGES
#CGenFF output mol2 file
@<TRIPOS>ATOM
1	C1    34.5200    57.7360    32.6700	C.3	1	DGJ      0.2170
2	C2    33.1150    57.5070    32.1160	C.3	1	DGJ      0.0840
3	O1    32.3940    56.5850    32.9360	O.3	1	DGJ     -0.6430
4	C3    33.1970    57.0090    30.6720	C.3	1	DGJ      0.0660
5	O2    31.8810    56.6710    30.1900	O.3	1	DGJ     -0.6450
6	C4    33.8370    58.0880    29.7980	C.3	1	DGJ      0.2520
7	O3    32.9660    59.2390    29.7030	O.3	1	DGJ     -0.6500
8	C5    35.2080    58.4680    30.3540	C.3	1	DGJ      0.1410
9	N    35.1790    58.6840    31.7970	N.4	1	DGJ     -0.3230
10	C6    35.7350    59.7160    29.6770	C.3	1	DGJ      0.1330
11	O4    37.0940    59.9110    30.0780	O.3	1	DGJ     -0.6690
12	H1    35.0624    56.8138    32.6847	H	1	DGJ      0.0900
13	H2    34.4754    58.1112    33.6711	H	1	DGJ      0.0900
14	H3    32.5843    58.4361    32.1245	H	1	DGJ      0.0900
15	H4    32.8552    55.7317    32.9456	H	1	DGJ      0.4040
16	H5    33.8027    56.1280    30.6299	H	1	DGJ      0.0900
17	H6    31.3140    57.4574    30.2196	H	1	DGJ      0.4200
18	H7    33.9769    57.7031    28.8095	H	1	DGJ      0.0900
19	H8    32.8217    59.6092    30.5879	H	1	DGJ      0.4200
20	H9    35.8579    57.6425    30.1511	H	1	DGJ      0.1100
21	H10    36.1503    58.7371    32.1038	H	1	DGJ      0.3170
22	H11    34.6032    59.5206    31.8915	H	1	DGJ      0.3170
23	H12    35.1475    60.5609    29.9701	H	1	DGJ      0.0900
24	H13    35.6786    59.6078    28.6140	H	1	DGJ      0.0900
25	H14    37.1358    60.0081    31.0422	H	1	DGJ      0.4190
@<TRIPOS>BOND
1	1	2	1
2	2	3	1
3	2	4	1
4	4	5	1
5	4	6	1
6	6	7	1
7	6	8	1
8	1	9	1
9	8	9	1
10	8	10	1
11	10	11	1
12	1	12	1
13	1	13	1
14	2	14	1
15	3	15	1
16	4	16	1
17	5	17	1
18	6	18	1
19	7	19	1
20	8	20	1
21	9	21	1
22	9	22	1
23	10	23	1
24	10	24	1
25	11	25	1
